Version 4
SHEET 1 1516 1416
WIRE 992 -384 -1264 -384
WIRE -192 -272 -720 -272
WIRE 256 -272 128 -272
WIRE 496 -272 336 -272
WIRE 368 -144 368 -208
WIRE -192 -96 -192 -272
WIRE -256 -48 -400 -48
WIRE 368 -16 368 -64
WIRE -112 0 -192 0
WIRE 128 0 128 -272
WIRE 128 0 -32 0
WIRE 336 0 128 0
WIRE 496 16 496 -272
WIRE 496 16 400 16
WIRE 704 16 496 16
WIRE 336 32 272 32
WIRE -480 48 -528 48
WIRE -400 48 -400 -48
WIRE -944 64 -1040 64
WIRE -720 64 -720 -272
WIRE -720 64 -864 64
WIRE 112 112 -192 112
WIRE 272 112 272 32
WIRE 272 112 112 112
WIRE -1040 128 -1040 64
WIRE -528 144 -528 48
WIRE -400 160 -400 48
WIRE -256 160 -400 160
WIRE 112 176 112 112
WIRE 368 192 368 48
WIRE -1040 272 -1040 208
WIRE -528 304 -528 224
WIRE 112 336 112 256
WIRE 368 336 368 272
WIRE -720 416 -720 64
WIRE -192 416 -192 208
WIRE -192 416 -720 416
WIRE -1264 512 -1264 -384
WIRE 992 512 992 -384
WIRE 992 512 -1264 512
WIRE 48 640 -112 640
WIRE -416 656 -480 656
WIRE -272 656 -336 656
WIRE -112 672 -112 640
WIRE 48 672 48 640
WIRE -112 816 -112 752
WIRE 48 816 48 752
WIRE 368 816 368 736
WIRE -368 832 -368 752
WIRE -1056 880 -1104 880
WIRE -816 880 -976 880
WIRE -576 880 -736 880
WIRE 368 928 368 896
WIRE -368 944 -368 912
WIRE 96 944 96 720
WIRE 176 944 96 944
WIRE 336 944 176 944
WIRE -576 960 -576 880
WIRE -480 960 -480 656
WIRE -480 960 -576 960
WIRE -400 960 -480 960
WIRE 528 960 400 960
WIRE 704 960 608 960
WIRE -272 976 -272 656
WIRE -272 976 -336 976
WIRE -240 976 -272 976
WIRE -80 976 -176 976
WIRE 16 976 -80 976
WIRE 336 976 16 976
WIRE -816 992 -1008 992
WIRE -400 992 -736 992
WIRE -80 1040 -80 976
WIRE 16 1040 16 976
WIRE 368 1056 368 992
WIRE -368 1072 -368 1008
WIRE -80 1136 -80 1104
WIRE -32 1136 -80 1136
WIRE 16 1136 16 1120
WIRE 16 1136 -32 1136
WIRE -368 1216 -368 1152
WIRE -32 1216 -32 1136
WIRE 368 1216 368 1136
WIRE -1264 1312 -1264 512
WIRE 992 1312 992 512
WIRE 992 1312 -1264 1312
FLAG -528 304 0
FLAG -1040 272 0
FLAG 368 336 0
FLAG 112 336 0
FLAG 704 16 modüleli_isaret
IOPIN 704 16 Out
FLAG 368 -208 0
FLAG -1104 880 0
FLAG -368 1216 0
FLAG -368 752 0
FLAG -1008 992 modüleli_isaret
IOPIN -1008 992 In
FLAG -32 1216 0
FLAG 368 1216 0
FLAG 368 736 0
FLAG 704 960 DemodüleSinyal
IOPIN 704 960 Out
FLAG -112 816 0
FLAG 48 816 0
FLAG 176 944 Vpot
SYMBOL voltage 368 288 R180
WINDOW 0 24 96 Left 2
WINDOW 3 24 16 Left 2
WINDOW 123 0 0 Left 0
WINDOW 39 0 0 Left 0
SYMATTR InstName V2
SYMATTR Value 12
SYMBOL res 96 160 R0
SYMATTR InstName R1
SYMATTR Value 15k
SYMBOL voltage -528 128 R0
WINDOW 123 0 0 Left 0
WINDOW 39 0 0 Left 0
WINDOW 0 -160 14 Left 2
SYMATTR InstName Mesaj_Isareti
SYMATTR Value PULSE(-5 5 0.5m 1n 1n 0.5m 1m)
SYMBOL res -384 32 R90
WINDOW 0 0 56 VBottom 2
WINDOW 3 32 56 VTop 2
SYMATTR InstName R2
SYMATTR Value 15k
SYMBOL res 352 -288 R90
WINDOW 0 0 56 VBottom 2
WINDOW 3 32 56 VTop 2
SYMATTR InstName R3
SYMATTR Value 15k
SYMBOL res -16 -16 R90
WINDOW 0 0 56 VBottom 2
WINDOW 3 32 56 VTop 2
SYMATTR InstName R4
SYMATTR Value 15k
SYMBOL res -848 48 R90
WINDOW 0 0 56 VBottom 2
WINDOW 3 32 56 VTop 2
SYMATTR InstName R5
SYMATTR Value 10k
SYMBOL voltage -1040 112 R0
WINDOW 123 0 0 Left 0
WINDOW 39 0 0 Left 0
SYMATTR InstName Tasiyici_Sinyal
SYMATTR Value SINE(0 5 10k)
SYMBOL OpAmps\\OP07 368 -48 R0
SYMATTR InstName U1
SYMBOL npn -256 -96 R0
SYMATTR InstName Q1
SYMATTR Value BC847A
SYMBOL pnp -256 112 R0
SYMATTR InstName Q2
SYMATTR Value BC857A
SYMBOL voltage 368 -48 R180
WINDOW 0 24 96 Left 2
WINDOW 3 24 16 Left 2
WINDOW 123 0 0 Left 0
WINDOW 39 0 0 Left 0
SYMATTR InstName V1
SYMATTR Value 12
SYMBOL voltage -960 880 R90
WINDOW 123 0 0 Left 0
WINDOW 39 0 0 Left 0
WINDOW 3 -216 52 Left 2
SYMATTR Value SINE(0 5 10k)
SYMATTR InstName V5
SYMBOL res -720 864 R90
WINDOW 0 0 56 VBottom 2
WINDOW 3 32 56 VTop 2
SYMATTR InstName R6
SYMATTR Value 15k
SYMBOL res -720 976 R90
WINDOW 0 0 56 VBottom 2
WINDOW 3 32 56 VTop 2
SYMATTR InstName R7
SYMATTR Value 15k
SYMBOL OpAmps\\OP07 -368 912 R0
SYMATTR InstName U2
SYMBOL voltage -368 1168 R180
WINDOW 0 24 96 Left 2
WINDOW 3 24 16 Left 2
WINDOW 123 0 0 Left 0
WINDOW 39 0 0 Left 0
SYMATTR InstName V6
SYMATTR Value 6
SYMBOL voltage -368 928 R180
WINDOW 0 24 96 Left 2
WINDOW 3 24 16 Left 2
WINDOW 123 0 0 Left 0
WINDOW 39 0 0 Left 0
SYMATTR InstName V7
SYMATTR Value 6
SYMBOL diode -240 992 R270
WINDOW 0 32 32 VTop 2
WINDOW 3 0 32 VBottom 2
SYMATTR InstName D1
SYMATTR Value 1N4148
SYMBOL cap -96 1040 R0
SYMATTR InstName C1
SYMATTR Value 0.01µ
SYMBOL res 0 1024 R0
SYMATTR InstName R8
SYMATTR Value 15k
SYMBOL res -320 640 R90
WINDOW 0 0 56 VBottom 2
WINDOW 3 32 56 VTop 2
SYMATTR InstName R9
SYMATTR Value 15k
SYMBOL OpAmps\\OP07 368 896 R0
SYMATTR InstName U3
SYMBOL voltage 368 1152 R180
WINDOW 0 24 96 Left 2
WINDOW 3 24 16 Left 2
WINDOW 123 0 0 Left 0
WINDOW 39 0 0 Left 0
SYMATTR InstName V8
SYMATTR Value 6
SYMBOL voltage 368 912 R180
WINDOW 0 24 96 Left 2
WINDOW 3 24 16 Left 2
WINDOW 123 0 0 Left 0
WINDOW 39 0 0 Left 0
SYMATTR InstName V9
SYMATTR Value 6
SYMBOL res 624 944 R90
WINDOW 0 0 56 VBottom 2
WINDOW 3 32 56 VTop 2
SYMATTR InstName R10
SYMATTR Value 15k
SYMBOL voltage -112 656 R0
WINDOW 123 0 0 Left 0
WINDOW 39 0 0 Left 0
SYMATTR InstName V10
SYMATTR Value 2
SYMBOL Custom\\pot 32 656 R0
SYMATTR InstName U4
TEXT -1184 488 Left 2 !.tran 2m
TEXT -48 608 Left 2 !.include pot.sub
TEXT -1264 -744 Left 7 ;PSK Modülasyon - Demodülasyon Devresi
TEXT 48 -440 Left 6 ;PSK Modülasyon Devresi
TEXT -64 1344 Left 6 ;PSK Demodülasyon Devresi
